<dictionary action="multiword" entry="lower">
aarp
aclu
acumen
ashoka
aspca
cea
cgt
cfdt
cia
dgse
fbi
fmi
hrw
ifaw
make-a-wish
now
nsa
onu
unesco
upu
unicef
vawa
wikileaks
wikipédia
wikipedia
médiawiki
mediawiki
wwf
atlanta journal-constitution
atlanta journal constitution
american civil rights union
creative commons
centre d' énergie atomique
confédération général du travail
confédération française démocratique du travail
fonds international pour la protection des animaux
international fund for animal welfare
united nations children' s fund
human rights watch
human rights campaign
world wildlife fund

antenne 2
a 2
france 2
fr2
fr 2
france 3
fr3
fr 3
arte
france 5
m6
m 6
la 6
le monde
le figaro
les échos
france-soir
wall street journal
new york times
usa today
los angeles times
daily news
new york post
washington post
washington
chicago sun-times
chicago sun times
denver post
chicago tribune
dallas morning news
newsday
houston chronicle
orange county register
star-ledger
star ledger
tampa bay times
plain dealer
philadelphia inquirer
star tribune
arizona republic
honolulu star-advertiser
honolulu star advertiser
las vegas review-journal
las vegas review journal
san diego union-tribune
san diego union tribune
boston globe

front national
fn
parti de la france
pdf
ligue du sud
ls
mouvement national républicain
mnr
rassemblement pour l'indépendance et la souveraineté de la france
souveraineté
les républicains
lr
debout la france
dlf
mouvement pour la france
mpf
parti chrétien-démocrate
pcd
rassemblement pour la france
rpf
rassemblement des contribuables français
alliance royale
centre national des indépendants et paysans
cnip
solidarité et progrès
alliance centriste
force européenne démocrate
fed
nouveau centre
nc
la gauche moderne
parti radical
nouvelle écologie démocrate
le parti libéral démocrate
pld
territoires en mouvement
nous citoyens
génération citoyens
le rassemblement citoyen
en marche !
parti radical de gauche
prg
union des démocrates et des écologistes
ude
front démocrate
fd
parti écologiste
génération écologie
ge
mouvement écologiste indépendant
mei
mouvement des progressistes
parti communiste français
pcf
parti de gauche
pg
ensemble !
parti communiste des ouvriers de france
pcof
europe écologie les verts
eelv
nouvelle donne
nouvelle gauche socialiste
mouvement républicain et citoyen
mrc
lutte ouvrière
lo
nouveau parti anticapitaliste
npa
parti ouvrier indépendant
poi
communistes
pôle de renaissance communiste en france
alternative démocratie socialisme
gauche révolutionnaire
parti pirate
alternative libertaire
fédération anarchiste
coordination des groupes anarchistes
rassemblement pour la république
rpr
union pour un mouvement populaire
ump
</dictionary>